# Packages
 &PACKAGES
 useOBCS=.TRUE.,
 useKPP=.TRUE.,
 useCHEAPAML=.FALSE.,
 useMNC=.TRUE.,
 useDIAGNOSTICS=.TRUE.,
 useCAL=.TRUE.,
 useEXF=.TRUE,
 &end
