&CAL_NML
  TheCalendar = 'gregorian',
  calendarDumps = .TRUE.,
  startDate_1 = 20020701,
  startDate_2 = 000000,
/

