&CAL_NML
  TheCalendar = 'gregorian',
  calendarDumps = .TRUE.,
  startDate_1 = 20020601,
  startDate_2 = 000000,
# TODO : Update end date for simulation
  endDate_1   = 20101231,
  endDate_2   = 235959,
/

