 &MNC_01
# mnc_echo_gvtypes=.FALSE.,
# mnc_use_indir=.FALSE.,
# mnc_indir_str='start/',
 mnc_use_outdir=.TRUE.,
 mnc_outdir_str='mnc_',
 mnc_outdir_date=.TRUE.,
 monitor_mnc=.FALSE.,
# snapshot_mnc=.FALSE.,
# timeave_mnc=.TRUE.,
 pickup_write_mnc=.FALSE.,
 pickup_read_mnc=.FALSE.,
 mnc_filefreq=86400.0,
 &end

