# Diagnostic Package Choices
#--------------------
#  dumpAtLast (logical): always write output at the end of simulation (default=F)
#  diag_mnc   (logical): write to NetCDF files (default=useMNC)
#--for each output-stream:
#  fileName(n) : prefix of the output file name (max 80c long) for outp.stream n
#  frequency(n):< 0 : write snap-shot output every |frequency| seconds
#               > 0 : write time-average output every frequency seconds
#  timePhase(n)     : write at time = timePhase + multiple of |frequency|
#  levels(:,n) : list of levels to write to file (Notes: declared as REAL)
#                when this entry is missing, select all common levels of this list
#  fields(:,n) : list of selected diagnostics fields (8.c) in outp.stream n
#                (see "available_diagnostics.log" file for the full list of diags)
#--------------------
 &DIAGNOSTICS_LIST
  diag_mnc     = .FALSE.,

# Stream 1: Daily snapshots of prognostic variables (3D)
  fields(1:4,1) = 'THETA   ','SALT    ','UVEL    ','VVEL    ',
  fileName(1) = 'state3D',
  frequency(1) = -86400.0,

# Stream 2: Daily snapshots of 2D prognostic fields
  fields(1:2,2) = 'ETAN    ','WVEL    ',
  fileName(2) = 'state2D',
  frequency(2) = -86400.0,

# Stream 3: Daily snapshots of surface fluxes
  fields(1:5,3) = 'TFLUX   ','SFLUX   ','oceFWflx','oceSflux','oceQnet ',
  fileName(3) = 'Thermo',
  frequency(3) = -86400.0,

 &end
 &DIAG_STATIS_PARMS
 &end
