! -----------------------------------------------------------------------------
! data.exf -- example for ERA-Interim 3h, 0.25deg, and a curvilinear model grid
! Edit file names, dates, periods, and the lon/lat metadata to match your files.
! -----------------------------------------------------------------------------

&EXF_NML_01
  ! General EXF runtime switches
  useExfCheckRange     = .FALSE.,   ! disabled — warnings are pre-clamp; windstressmax clamps stress at 2.0 N/m²
  useExfYearlyFields   = .FALSE.,   ! we use single (not yearly-suffixed) files
  twoDigitYear         = .FALSE.,
  repeatPeriod         = 0.0,       ! no global repeat
  exf_iprec            = 32,        ! input precision (32 or 64)
  exf_albedo           = 0.1,
  exf_scal_BulkCdn     = 1.0,
  ! Grid/rotation/wind options for curvilinear grids:
  readStressOnAgrid    = .FALSE.,   ! we read winds (uwind/vwind) not stresses by default
  rotateStressOnAgrid  = .FALSE.,   ! winds are pre-rotated to model grid by mk_exf_conditions.py
  readStressOnCgrid    = .FALSE.,
  useAtmWind           = .TRUE.,    ! use uwind/vwind to compute stress (and rotate them)
  useRelativeWind      = .FALSE.,
  hu                   = 10.0,      ! height (m) of wind observations (10 m)
  ht                   = 2.0,       ! height (m) of temp/humidity (2 m)
  zref                 = 10.0,      ! reference height (10 m)
/

&EXF_NML_02
  ! --- filenames, startdates and periods (seconds) ---

  ! Wind components (10 m)
  uwindfile        = 'uwind.bin',
  uwindstartdate1  = 20020701,
  uwindstartdate2  = 000000,
  uwindperiod      = 10800.0,

  vwindfile        = 'vwind.bin',
  vwindstartdate1  = 20020701,
  vwindstartdate2  = 000000,
  vwindperiod      = 10800.0,

  ! 2-m air temperature (K)
  atempfile        = 'atemp.bin',
  atempstartdate1  = 20020701,
  atempstartdate2  = 000000,
  atempperiod      = 10800.0,

  ! 2-m specific humidity (kg/kg)
  aqhfile          = 'aqh.bin',
  aqhstartdate1    = 20020701,
  aqhstartdate2    = 000000,
  aqhperiod        = 10800.0,

  ! Shortwave radiation
  swdownfile       = 'swdown.bin',
  swdownstartdate1 = 20020701,
  swdownstartdate2 = 000000,
  swdownperiod     = 10800.0,

  ! Longwave radiation
  lwdownfile       = 'lwdown.bin',
  lwdownstartdate1 = 20020701,
  lwdownstartdate2 = 000000,
  lwdownperiod     = 10800.0,

  ! Precipitation
  precipfile       = 'precip.bin',
  precipstartdate1 = 20020701,
  precipstartdate2 = 000000,
  precipperiod     = 10800.0,

  ! Evaporation
  evapfile         = 'evap.bin',
  evapstartdate1   = 20020701,
  evapstartdate2   = 000000,
  evapperiod       = 10800.0,

  ! Runoff
  runofffile       = 'runoff.bin',
  runoffstartdate1 = 20020701,
  runoffstartdate2 = 000000,
  runoffperiod     = 10800.0,
/

&EXF_NML_03
  ! climatological relaxation fields (climsst, climsss, etc.) -- unused here
/

&EXF_NML_04
  ! All EXF fields are pre-interpolated to the model grid by
  ! mk_exf_conditions.py.  No EXF interpolation metadata needed.
  ! Wind vectors are pre-rotated to model-grid (i,j) directions.
/
&EXF_NML_OBCS
  useOBCSYearlyFields  = .FALSE.,

  obcsNstartdate1 = 20020701,  obcsNstartdate2 = 000000,
  obcsNperiod     = 86400.0,   obcsNrepCycle   = 0.0,

  obcsSstartdate1 = 20020701,  obcsSstartdate2 = 000000,
  obcsSperiod     = 86400.0,   obcsSrepCycle   = 0.0,

  obcsEstartdate1 = 20020701,  obcsEstartdate2 = 000000,
  obcsEperiod     = 86400.0,   obcsErepCycle   = 0.0,

  obcsWstartdate1 = 20020701,  obcsWstartdate2 = 000000,
  obcsWperiod     = 86400.0,   obcsWrepCycle   = 0.0,
/
